Circuit: * G:\Studies\5th SEM\Linear Integrated Circuits\Lab\Miniproject\Simulation files\miniproject.asc

Limiting rise time of source v7 to 0.05
Limiting fall time of source v7 to 0.05
Direct Newton iteration for .op point succeeded.
Ignoring empty pin current: Ix(u3:1)
Ignoring empty pin current: Ix(u3:2)
Ignoring empty pin current: Ix(u4:1)
Ignoring empty pin current: Ix(u4:2)
Ignoring empty pin current: Ix(u3:1)
Ignoring empty pin current: Ix(u3:2)
Ignoring empty pin current: Ix(u4:1)
Ignoring empty pin current: Ix(u4:2)

Date: Tue Nov 26 12:20:52 2019
Total elapsed time: 25.229 seconds.

tnom = 27
temp = 27
method = modified trap
totiter = 1858594
traniter = 1858553
tranpoints = 441327
accept = 322330
rejected = 118997
matrix size = 58
fillins = 46
solver = Normal
Matrix Compiler1: 4.30 KB object code size  2.5/1.3/[0.6]
Matrix Compiler2: off  [1.0]/2.4/1.4

